 
# Copyright 2022 SkyWater PDK Authors
#
# Licensed under the Apache License, Version 2.0 (the "License");
# you may not use this file except in compliance with the License.
# You may obtain a copy of the License at
#
#     https://www.apache.org/licenses/LICENSE-2.0
#
# Unless required by applicable law or agreed to in writing, software
# distributed under the License is distributed on an "AS IS" BASIS,
# WITHOUT WARRANTIES OR CONDITIONS OF ANY KIND, either express or implied.
# See the License for the specific language governing permissions and
# limitations under the License.
#
# SPDX-License-Identifier: Apache-2.0

.SUBCKT sky130_fd_pr__nfet_05v0_nvt SUBSTRATE
+ SOURCE0 GATE0 DRAIN0 SOURCE0_net_fail SOURCE0_dim_fail GATE0_net_fail GATE0_dim_fail DRAIN0_net_fail DRAIN0_dim_fail
+ SOURCE1 GATE1 DRAIN1 SOURCE1_net_fail SOURCE1_dim_fail GATE1_net_fail GATE1_dim_fail DRAIN1_net_fail DRAIN1_dim_fail
+ SOURCE2 GATE2 DRAIN2 SOURCE2_net_fail SOURCE2_dim_fail GATE2_net_fail GATE2_dim_fail DRAIN2_net_fail DRAIN2_dim_fail
+ SOURCE3 GATE3 DRAIN3 SOURCE3_net_fail SOURCE3_dim_fail GATE3_net_fail GATE3_dim_fail DRAIN3_net_fail DRAIN3_dim_fail
+ SOURCE4 GATE4 DRAIN4 SOURCE4_net_fail SOURCE4_dim_fail GATE4_net_fail GATE4_dim_fail DRAIN4_net_fail DRAIN4_dim_fail
+ SOURCE5 GATE5 DRAIN5 SOURCE5_net_fail SOURCE5_dim_fail GATE5_net_fail GATE5_dim_fail DRAIN5_net_fail DRAIN5_dim_fail
+ SOURCE6 GATE6 DRAIN6 SOURCE6_net_fail SOURCE6_dim_fail GATE6_net_fail GATE6_dim_fail DRAIN6_net_fail DRAIN6_dim_fail
+ SOURCE7 GATE7 DRAIN7 SOURCE7_net_fail SOURCE7_dim_fail GATE7_net_fail GATE7_dim_fail DRAIN7_net_fail DRAIN7_dim_fail
+ SOURCE8 GATE8 DRAIN8 SOURCE8_net_fail SOURCE8_dim_fail GATE8_net_fail GATE8_dim_fail DRAIN8_net_fail DRAIN8_dim_fail
+ SOURCE9 GATE9 DRAIN9 SOURCE9_net_fail SOURCE9_dim_fail GATE9_net_fail GATE9_dim_fail DRAIN9_net_fail DRAIN9_dim_fail
+ SOURCE10 GATE10 DRAIN10 SOURCE10_net_fail SOURCE10_dim_fail GATE10_net_fail GATE10_dim_fail DRAIN10_net_fail DRAIN10_dim_fail
+ SOURCE11 GATE11 DRAIN11 SOURCE11_net_fail SOURCE11_dim_fail GATE11_net_fail GATE11_dim_fail DRAIN11_net_fail DRAIN11_dim_fail
+ SOURCE12 GATE12 DRAIN12 SOURCE12_net_fail SOURCE12_dim_fail GATE12_net_fail GATE12_dim_fail DRAIN12_net_fail DRAIN12_dim_fail
+ SOURCE13 GATE13 DRAIN13 SOURCE13_net_fail SOURCE13_dim_fail GATE13_net_fail GATE13_dim_fail DRAIN13_net_fail DRAIN13_dim_fail
+ SOURCE14 GATE14 DRAIN14 SOURCE14_net_fail SOURCE14_dim_fail GATE14_net_fail GATE14_dim_fail DRAIN14_net_fail DRAIN14_dim_fail
+ SOURCE15 GATE15 DRAIN15 SOURCE15_net_fail SOURCE15_dim_fail GATE15_net_fail GATE15_dim_fail DRAIN15_net_fail DRAIN15_dim_fail
+ SOURCE16 GATE16 DRAIN16 SOURCE16_net_fail SOURCE16_dim_fail GATE16_net_fail GATE16_dim_fail DRAIN16_net_fail DRAIN16_dim_fail
+ SOURCE17 GATE17 DRAIN17 SOURCE17_net_fail SOURCE17_dim_fail GATE17_net_fail GATE17_dim_fail DRAIN17_net_fail DRAIN17_dim_fail
+ SOURCE18 GATE18 DRAIN18 SOURCE18_net_fail SOURCE18_dim_fail GATE18_net_fail GATE18_dim_fail DRAIN18_net_fail DRAIN18_dim_fail
+ SOURCE19 GATE19 DRAIN19 SOURCE19_net_fail SOURCE19_dim_fail GATE19_net_fail GATE19_dim_fail DRAIN19_net_fail DRAIN19_dim_fail
+ SOURCE20 GATE20 DRAIN20 SOURCE20_net_fail SOURCE20_dim_fail GATE20_net_fail GATE20_dim_fail DRAIN20_net_fail DRAIN20_dim_fail
+ SOURCE21 GATE21 DRAIN21 SOURCE21_net_fail SOURCE21_dim_fail GATE21_net_fail GATE21_dim_fail DRAIN21_net_fail DRAIN21_dim_fail
+ SOURCE22 GATE22 DRAIN22 SOURCE22_net_fail SOURCE22_dim_fail GATE22_net_fail GATE22_dim_fail DRAIN22_net_fail DRAIN22_dim_fail
+ SOURCE23 GATE23 DRAIN23 SOURCE23_net_fail SOURCE23_dim_fail GATE23_net_fail GATE23_dim_fail DRAIN23_net_fail DRAIN23_dim_fail
+ SOURCE24 GATE24 DRAIN24 SOURCE24_net_fail SOURCE24_dim_fail GATE24_net_fail GATE24_dim_fail DRAIN24_net_fail DRAIN24_dim_fail
+ SOURCE25 GATE25 DRAIN25 SOURCE25_net_fail SOURCE25_dim_fail GATE25_net_fail GATE25_dim_fail DRAIN25_net_fail DRAIN25_dim_fail
+ SOURCE26 GATE26 DRAIN26 SOURCE26_net_fail SOURCE26_dim_fail GATE26_net_fail GATE26_dim_fail DRAIN26_net_fail DRAIN26_dim_fail
+ SOURCE27 GATE27 DRAIN27 SOURCE27_net_fail SOURCE27_dim_fail GATE27_net_fail GATE27_dim_fail DRAIN27_net_fail DRAIN27_dim_fail
+ SOURCE28 GATE28 DRAIN28 SOURCE28_net_fail SOURCE28_dim_fail GATE28_net_fail GATE28_dim_fail DRAIN28_net_fail DRAIN28_dim_fail
+ SOURCE29 GATE29 DRAIN29 SOURCE29_net_fail SOURCE29_dim_fail GATE29_net_fail GATE29_dim_fail DRAIN29_net_fail DRAIN29_dim_fail
+ SOURCE30 GATE30 DRAIN30 SOURCE30_net_fail SOURCE30_dim_fail GATE30_net_fail GATE30_dim_fail DRAIN30_net_fail DRAIN30_dim_fail
+ SOURCE31 GATE31 DRAIN31 SOURCE31_net_fail SOURCE31_dim_fail GATE31_net_fail GATE31_dim_fail DRAIN31_net_fail DRAIN31_dim_fail
+ SOURCE32 GATE32 DRAIN32 SOURCE32_net_fail SOURCE32_dim_fail GATE32_net_fail GATE32_dim_fail DRAIN32_net_fail DRAIN32_dim_fail
+ SOURCE33 GATE33 DRAIN33 SOURCE33_net_fail SOURCE33_dim_fail GATE33_net_fail GATE33_dim_fail DRAIN33_net_fail DRAIN33_dim_fail
+ SOURCE34 GATE34 DRAIN34 SOURCE34_net_fail SOURCE34_dim_fail GATE34_net_fail GATE34_dim_fail DRAIN34_net_fail DRAIN34_dim_fail
+ SOURCE35 GATE35 DRAIN35 SOURCE35_net_fail SOURCE35_dim_fail GATE35_net_fail GATE35_dim_fail DRAIN35_net_fail DRAIN35_dim_fail
+ SOURCE36 GATE36 DRAIN36 SOURCE36_net_fail SOURCE36_dim_fail GATE36_net_fail GATE36_dim_fail DRAIN36_net_fail DRAIN36_dim_fail
+ SOURCE37 GATE37 DRAIN37 SOURCE37_net_fail SOURCE37_dim_fail GATE37_net_fail GATE37_dim_fail DRAIN37_net_fail DRAIN37_dim_fail
+ SOURCE38 GATE38 DRAIN38 SOURCE38_net_fail SOURCE38_dim_fail GATE38_net_fail GATE38_dim_fail DRAIN38_net_fail DRAIN38_dim_fail
+ SOURCE39 GATE39 DRAIN39 SOURCE39_net_fail SOURCE39_dim_fail GATE39_net_fail GATE39_dim_fail DRAIN39_net_fail DRAIN39_dim_fail
+ SOURCE40 GATE40 DRAIN40 SOURCE40_net_fail SOURCE40_dim_fail GATE40_net_fail GATE40_dim_fail DRAIN40_net_fail DRAIN40_dim_fail
+ SOURCE41 GATE41 DRAIN41 SOURCE41_net_fail SOURCE41_dim_fail GATE41_net_fail GATE41_dim_fail DRAIN41_net_fail DRAIN41_dim_fail
+ SOURCE42 GATE42 DRAIN42 SOURCE42_net_fail SOURCE42_dim_fail GATE42_net_fail GATE42_dim_fail DRAIN42_net_fail DRAIN42_dim_fail
+ SOURCE43 GATE43 DRAIN43 SOURCE43_net_fail SOURCE43_dim_fail GATE43_net_fail GATE43_dim_fail DRAIN43_net_fail DRAIN43_dim_fail
+ SOURCE44 GATE44 DRAIN44 SOURCE44_net_fail SOURCE44_dim_fail GATE44_net_fail GATE44_dim_fail DRAIN44_net_fail DRAIN44_dim_fail
+ SOURCE45 GATE45 DRAIN45 SOURCE45_net_fail SOURCE45_dim_fail GATE45_net_fail GATE45_dim_fail DRAIN45_net_fail DRAIN45_dim_fail
+ SOURCE46 GATE46 DRAIN46 SOURCE46_net_fail SOURCE46_dim_fail GATE46_net_fail GATE46_dim_fail DRAIN46_net_fail DRAIN46_dim_fail
+ SOURCE47 GATE47 DRAIN47 SOURCE47_net_fail SOURCE47_dim_fail GATE47_net_fail GATE47_dim_fail DRAIN47_net_fail DRAIN47_dim_fail
+ SOURCE48 GATE48 DRAIN48 SOURCE48_net_fail SOURCE48_dim_fail GATE48_net_fail GATE48_dim_fail DRAIN48_net_fail DRAIN48_dim_fail
+ SOURCE49 GATE49 DRAIN49 SOURCE49_net_fail SOURCE49_dim_fail GATE49_net_fail GATE49_dim_fail DRAIN49_net_fail DRAIN49_dim_fail
+ SOURCE50 GATE50 DRAIN50 SOURCE50_net_fail SOURCE50_dim_fail GATE50_net_fail GATE50_dim_fail DRAIN50_net_fail DRAIN50_dim_fail
+ SOURCE51 GATE51 DRAIN51 SOURCE51_net_fail SOURCE51_dim_fail GATE51_net_fail GATE51_dim_fail DRAIN51_net_fail DRAIN51_dim_fail
+ SOURCE52 GATE52 DRAIN52 SOURCE52_net_fail SOURCE52_dim_fail GATE52_net_fail GATE52_dim_fail DRAIN52_net_fail DRAIN52_dim_fail
+ SOURCE53 GATE53 DRAIN53 SOURCE53_net_fail SOURCE53_dim_fail GATE53_net_fail GATE53_dim_fail DRAIN53_net_fail DRAIN53_dim_fail
+ SOURCE54 GATE54 DRAIN54 SOURCE54_net_fail SOURCE54_dim_fail GATE54_net_fail GATE54_dim_fail DRAIN54_net_fail DRAIN54_dim_fail
+ SOURCE55 GATE55 DRAIN55 SOURCE55_net_fail SOURCE55_dim_fail GATE55_net_fail GATE55_dim_fail DRAIN55_net_fail DRAIN55_dim_fail
+ SOURCE56 GATE56 DRAIN56 SOURCE56_net_fail SOURCE56_dim_fail GATE56_net_fail GATE56_dim_fail DRAIN56_net_fail DRAIN56_dim_fail
+ SOURCE57 GATE57 DRAIN57 SOURCE57_net_fail SOURCE57_dim_fail GATE57_net_fail GATE57_dim_fail DRAIN57_net_fail DRAIN57_dim_fail
+ SOURCE58 GATE58 DRAIN58 SOURCE58_net_fail SOURCE58_dim_fail GATE58_net_fail GATE58_dim_fail DRAIN58_net_fail DRAIN58_dim_fail
+ SOURCE59 GATE59 DRAIN59 SOURCE59_net_fail SOURCE59_dim_fail GATE59_net_fail GATE59_dim_fail DRAIN59_net_fail DRAIN59_dim_fail
+ SOURCE60 GATE60 DRAIN60 SOURCE60_net_fail SOURCE60_dim_fail GATE60_net_fail GATE60_dim_fail DRAIN60_net_fail DRAIN60_dim_fail
+ SOURCE61 GATE61 DRAIN61 SOURCE61_net_fail SOURCE61_dim_fail GATE61_net_fail GATE61_dim_fail DRAIN61_net_fail DRAIN61_dim_fail
+ SOURCE62 GATE62 DRAIN62 SOURCE62_net_fail SOURCE62_dim_fail GATE62_net_fail GATE62_dim_fail DRAIN62_net_fail DRAIN62_dim_fail
+ SOURCE63 GATE63 DRAIN63 SOURCE63_net_fail SOURCE63_dim_fail GATE63_net_fail GATE63_dim_fail DRAIN63_net_fail DRAIN63_dim_fail

M0 SOURCE0 GATE0 DRAIN0 SUBSTRATE sky130_fd_pr__nfet_05v0_nvt w=0.42 l=0.15 nf=1 
+ m=1 ad=0.12179999999999999 as=0.12179999999999999 pd=1.42 ps=1.42 nrd=0.6904761904761905 nrs=0.6904761904761905 sa=0 sb=0 sd=0 m=1_net_fail m=1_dim_fail ad=0.12179999999999999_net_fail ad=0.12179999999999999_dim_fail as=0.12179999999999999_net_fail as=0.12179999999999999_dim_fail pd=1.42_net_fail pd=1.42_dim_fail ps=1.42_net_fail ps=1.42_dim_fail nrd=0.6904761904761905_net_fail nrd=0.6904761904761905_dim_fail nrs=0.6904761904761905_net_fail nrs=0.6904761904761905_dim_fail sa=0_net_fail sa=0_dim_fail sb=0_net_fail sb=0_dim_fail sd=0_net_fail sd=0_dim_fail

M1 SOURCE1 GATE1 DRAIN1 SUBSTRATE sky130_fd_pr__nfet_05v0_nvt w=2.1 l=0.15 nf=1 
+ m=1 ad=0.609 as=0.609 pd=4.78 ps=4.78 nrd=0.13809523809523808 nrs=0.13809523809523808 sa=0 sb=0 sd=0 m=1_net_fail m=1_dim_fail ad=0.609_net_fail ad=0.609_dim_fail as=0.609_net_fail as=0.609_dim_fail pd=4.78_net_fail pd=4.78_dim_fail ps=4.78_net_fail ps=4.78_dim_fail nrd=0.13809523809523808_net_fail nrd=0.13809523809523808_dim_fail nrs=0.13809523809523808_net_fail nrs=0.13809523809523808_dim_fail sa=0_net_fail sa=0_dim_fail sb=0_net_fail sb=0_dim_fail sd=0_net_fail sd=0_dim_fail

M2 SOURCE2 GATE2 DRAIN2 SUBSTRATE sky130_fd_pr__nfet_05v0_nvt w=3.7800000000000002 l=0.15 nf=1 
+ m=1 ad=1.0962 as=1.0962 pd=8.14 ps=8.14 nrd=0.07671957671957672 nrs=0.07671957671957672 sa=0 sb=0 sd=0 m=1_net_fail m=1_dim_fail ad=1.0962_net_fail ad=1.0962_dim_fail as=1.0962_net_fail as=1.0962_dim_fail pd=8.14_net_fail pd=8.14_dim_fail ps=8.14_net_fail ps=8.14_dim_fail nrd=0.07671957671957672_net_fail nrd=0.07671957671957672_dim_fail nrs=0.07671957671957672_net_fail nrs=0.07671957671957672_dim_fail sa=0_net_fail sa=0_dim_fail sb=0_net_fail sb=0_dim_fail sd=0_net_fail sd=0_dim_fail

M3 SOURCE3 GATE3 DRAIN3 SUBSTRATE sky130_fd_pr__nfet_05v0_nvt w=5.460000000000001 l=0.15 nf=1 
+ m=1 ad=1.5834000000000001 as=1.5834000000000001 pd=11.500000000000002 ps=11.500000000000002 nrd=0.0531135531135531 nrs=0.0531135531135531 sa=0 sb=0 sd=0 m=1_net_fail m=1_dim_fail ad=1.5834000000000001_net_fail ad=1.5834000000000001_dim_fail as=1.5834000000000001_net_fail as=1.5834000000000001_dim_fail pd=11.500000000000002_net_fail pd=11.500000000000002_dim_fail ps=11.500000000000002_net_fail ps=11.500000000000002_dim_fail nrd=0.0531135531135531_net_fail nrd=0.0531135531135531_dim_fail nrs=0.0531135531135531_net_fail nrs=0.0531135531135531_dim_fail sa=0_net_fail sa=0_dim_fail sb=0_net_fail sb=0_dim_fail sd=0_net_fail sd=0_dim_fail

M4 SOURCE4 GATE4 DRAIN4 SUBSTRATE sky130_fd_pr__nfet_05v0_nvt w=0.42 l=2.15 nf=1 
+ m=1 ad=0.12179999999999999 as=0.12179999999999999 pd=1.42 ps=1.42 nrd=0.6904761904761905 nrs=0.6904761904761905 sa=0 sb=0 sd=0 m=1_net_fail m=1_dim_fail ad=0.12179999999999999_net_fail ad=0.12179999999999999_dim_fail as=0.12179999999999999_net_fail as=0.12179999999999999_dim_fail pd=1.42_net_fail pd=1.42_dim_fail ps=1.42_net_fail ps=1.42_dim_fail nrd=0.6904761904761905_net_fail nrd=0.6904761904761905_dim_fail nrs=0.6904761904761905_net_fail nrs=0.6904761904761905_dim_fail sa=0_net_fail sa=0_dim_fail sb=0_net_fail sb=0_dim_fail sd=0_net_fail sd=0_dim_fail

M5 SOURCE5 GATE5 DRAIN5 SUBSTRATE sky130_fd_pr__nfet_05v0_nvt w=2.1 l=2.15 nf=1 
+ m=1 ad=0.609 as=0.609 pd=4.78 ps=4.78 nrd=0.13809523809523808 nrs=0.13809523809523808 sa=0 sb=0 sd=0 m=1_net_fail m=1_dim_fail ad=0.609_net_fail ad=0.609_dim_fail as=0.609_net_fail as=0.609_dim_fail pd=4.78_net_fail pd=4.78_dim_fail ps=4.78_net_fail ps=4.78_dim_fail nrd=0.13809523809523808_net_fail nrd=0.13809523809523808_dim_fail nrs=0.13809523809523808_net_fail nrs=0.13809523809523808_dim_fail sa=0_net_fail sa=0_dim_fail sb=0_net_fail sb=0_dim_fail sd=0_net_fail sd=0_dim_fail

M6 SOURCE6 GATE6 DRAIN6 SUBSTRATE sky130_fd_pr__nfet_05v0_nvt w=3.7800000000000002 l=2.15 nf=1 
+ m=1 ad=1.0962 as=1.0962 pd=8.14 ps=8.14 nrd=0.07671957671957672 nrs=0.07671957671957672 sa=0 sb=0 sd=0 m=1_net_fail m=1_dim_fail ad=1.0962_net_fail ad=1.0962_dim_fail as=1.0962_net_fail as=1.0962_dim_fail pd=8.14_net_fail pd=8.14_dim_fail ps=8.14_net_fail ps=8.14_dim_fail nrd=0.07671957671957672_net_fail nrd=0.07671957671957672_dim_fail nrs=0.07671957671957672_net_fail nrs=0.07671957671957672_dim_fail sa=0_net_fail sa=0_dim_fail sb=0_net_fail sb=0_dim_fail sd=0_net_fail sd=0_dim_fail

M7 SOURCE7 GATE7 DRAIN7 SUBSTRATE sky130_fd_pr__nfet_05v0_nvt w=5.460000000000001 l=2.15 nf=1 
+ m=1 ad=1.5834000000000001 as=1.5834000000000001 pd=11.500000000000002 ps=11.500000000000002 nrd=0.0531135531135531 nrs=0.0531135531135531 sa=0 sb=0 sd=0 m=1_net_fail m=1_dim_fail ad=1.5834000000000001_net_fail ad=1.5834000000000001_dim_fail as=1.5834000000000001_net_fail as=1.5834000000000001_dim_fail pd=11.500000000000002_net_fail pd=11.500000000000002_dim_fail ps=11.500000000000002_net_fail ps=11.500000000000002_dim_fail nrd=0.0531135531135531_net_fail nrd=0.0531135531135531_dim_fail nrs=0.0531135531135531_net_fail nrs=0.0531135531135531_dim_fail sa=0_net_fail sa=0_dim_fail sb=0_net_fail sb=0_dim_fail sd=0_net_fail sd=0_dim_fail

M8 SOURCE8 GATE8 DRAIN8 SUBSTRATE sky130_fd_pr__nfet_05v0_nvt w=0.42 l=4.15 nf=1 
+ m=1 ad=0.12179999999999999 as=0.12179999999999999 pd=1.42 ps=1.42 nrd=0.6904761904761905 nrs=0.6904761904761905 sa=0 sb=0 sd=0 m=1_net_fail m=1_dim_fail ad=0.12179999999999999_net_fail ad=0.12179999999999999_dim_fail as=0.12179999999999999_net_fail as=0.12179999999999999_dim_fail pd=1.42_net_fail pd=1.42_dim_fail ps=1.42_net_fail ps=1.42_dim_fail nrd=0.6904761904761905_net_fail nrd=0.6904761904761905_dim_fail nrs=0.6904761904761905_net_fail nrs=0.6904761904761905_dim_fail sa=0_net_fail sa=0_dim_fail sb=0_net_fail sb=0_dim_fail sd=0_net_fail sd=0_dim_fail

M9 SOURCE9 GATE9 DRAIN9 SUBSTRATE sky130_fd_pr__nfet_05v0_nvt w=2.1 l=4.15 nf=1 
+ m=1 ad=0.609 as=0.609 pd=4.78 ps=4.78 nrd=0.13809523809523808 nrs=0.13809523809523808 sa=0 sb=0 sd=0 m=1_net_fail m=1_dim_fail ad=0.609_net_fail ad=0.609_dim_fail as=0.609_net_fail as=0.609_dim_fail pd=4.78_net_fail pd=4.78_dim_fail ps=4.78_net_fail ps=4.78_dim_fail nrd=0.13809523809523808_net_fail nrd=0.13809523809523808_dim_fail nrs=0.13809523809523808_net_fail nrs=0.13809523809523808_dim_fail sa=0_net_fail sa=0_dim_fail sb=0_net_fail sb=0_dim_fail sd=0_net_fail sd=0_dim_fail

M10 SOURCE10 GATE10 DRAIN10 SUBSTRATE sky130_fd_pr__nfet_05v0_nvt w=3.7800000000000002 l=4.15 nf=1 
+ m=1 ad=1.0962 as=1.0962 pd=8.14 ps=8.14 nrd=0.07671957671957672 nrs=0.07671957671957672 sa=0 sb=0 sd=0 m=1_net_fail m=1_dim_fail ad=1.0962_net_fail ad=1.0962_dim_fail as=1.0962_net_fail as=1.0962_dim_fail pd=8.14_net_fail pd=8.14_dim_fail ps=8.14_net_fail ps=8.14_dim_fail nrd=0.07671957671957672_net_fail nrd=0.07671957671957672_dim_fail nrs=0.07671957671957672_net_fail nrs=0.07671957671957672_dim_fail sa=0_net_fail sa=0_dim_fail sb=0_net_fail sb=0_dim_fail sd=0_net_fail sd=0_dim_fail

M11 SOURCE11 GATE11 DRAIN11 SUBSTRATE sky130_fd_pr__nfet_05v0_nvt w=5.460000000000001 l=4.15 nf=1 
+ m=1 ad=1.5834000000000001 as=1.5834000000000001 pd=11.500000000000002 ps=11.500000000000002 nrd=0.0531135531135531 nrs=0.0531135531135531 sa=0 sb=0 sd=0 m=1_net_fail m=1_dim_fail ad=1.5834000000000001_net_fail ad=1.5834000000000001_dim_fail as=1.5834000000000001_net_fail as=1.5834000000000001_dim_fail pd=11.500000000000002_net_fail pd=11.500000000000002_dim_fail ps=11.500000000000002_net_fail ps=11.500000000000002_dim_fail nrd=0.0531135531135531_net_fail nrd=0.0531135531135531_dim_fail nrs=0.0531135531135531_net_fail nrs=0.0531135531135531_dim_fail sa=0_net_fail sa=0_dim_fail sb=0_net_fail sb=0_dim_fail sd=0_net_fail sd=0_dim_fail

M12 SOURCE12 GATE12 DRAIN12 SUBSTRATE sky130_fd_pr__nfet_05v0_nvt w=0.42 l=6.15 nf=1 
+ m=1 ad=0.12179999999999999 as=0.12179999999999999 pd=1.42 ps=1.42 nrd=0.6904761904761905 nrs=0.6904761904761905 sa=0 sb=0 sd=0 m=1_net_fail m=1_dim_fail ad=0.12179999999999999_net_fail ad=0.12179999999999999_dim_fail as=0.12179999999999999_net_fail as=0.12179999999999999_dim_fail pd=1.42_net_fail pd=1.42_dim_fail ps=1.42_net_fail ps=1.42_dim_fail nrd=0.6904761904761905_net_fail nrd=0.6904761904761905_dim_fail nrs=0.6904761904761905_net_fail nrs=0.6904761904761905_dim_fail sa=0_net_fail sa=0_dim_fail sb=0_net_fail sb=0_dim_fail sd=0_net_fail sd=0_dim_fail

M13 SOURCE13 GATE13 DRAIN13 SUBSTRATE sky130_fd_pr__nfet_05v0_nvt w=2.1 l=6.15 nf=1 
+ m=1 ad=0.609 as=0.609 pd=4.78 ps=4.78 nrd=0.13809523809523808 nrs=0.13809523809523808 sa=0 sb=0 sd=0 m=1_net_fail m=1_dim_fail ad=0.609_net_fail ad=0.609_dim_fail as=0.609_net_fail as=0.609_dim_fail pd=4.78_net_fail pd=4.78_dim_fail ps=4.78_net_fail ps=4.78_dim_fail nrd=0.13809523809523808_net_fail nrd=0.13809523809523808_dim_fail nrs=0.13809523809523808_net_fail nrs=0.13809523809523808_dim_fail sa=0_net_fail sa=0_dim_fail sb=0_net_fail sb=0_dim_fail sd=0_net_fail sd=0_dim_fail

M14 SOURCE14 GATE14 DRAIN14 SUBSTRATE sky130_fd_pr__nfet_05v0_nvt w=3.7800000000000002 l=6.15 nf=1 
+ m=1 ad=1.0962 as=1.0962 pd=8.14 ps=8.14 nrd=0.07671957671957672 nrs=0.07671957671957672 sa=0 sb=0 sd=0 m=1_net_fail m=1_dim_fail ad=1.0962_net_fail ad=1.0962_dim_fail as=1.0962_net_fail as=1.0962_dim_fail pd=8.14_net_fail pd=8.14_dim_fail ps=8.14_net_fail ps=8.14_dim_fail nrd=0.07671957671957672_net_fail nrd=0.07671957671957672_dim_fail nrs=0.07671957671957672_net_fail nrs=0.07671957671957672_dim_fail sa=0_net_fail sa=0_dim_fail sb=0_net_fail sb=0_dim_fail sd=0_net_fail sd=0_dim_fail

M15 SOURCE15 GATE15 DRAIN15 SUBSTRATE sky130_fd_pr__nfet_05v0_nvt w=5.460000000000001 l=6.15 nf=1 
+ m=1 ad=1.5834000000000001 as=1.5834000000000001 pd=11.500000000000002 ps=11.500000000000002 nrd=0.0531135531135531 nrs=0.0531135531135531 sa=0 sb=0 sd=0 m=1_net_fail m=1_dim_fail ad=1.5834000000000001_net_fail ad=1.5834000000000001_dim_fail as=1.5834000000000001_net_fail as=1.5834000000000001_dim_fail pd=11.500000000000002_net_fail pd=11.500000000000002_dim_fail ps=11.500000000000002_net_fail ps=11.500000000000002_dim_fail nrd=0.0531135531135531_net_fail nrd=0.0531135531135531_dim_fail nrs=0.0531135531135531_net_fail nrs=0.0531135531135531_dim_fail sa=0_net_fail sa=0_dim_fail sb=0_net_fail sb=0_dim_fail sd=0_net_fail sd=0_dim_fail

M16 SOURCE16 GATE16 DRAIN16 SUBSTRATE sky130_fd_pr__nfet_05v0_nvt w=0.42 l=0.15 nf=5 
+ m=1 ad=0.07307999999999999 as=0.07307999999999999 pd=2.2439999999999998 ps=2.2439999999999998 nrd=0.6904761904761905 nrs=0.6904761904761905 sa=0 sb=0 sd=0 m=1_net_fail m=1_dim_fail ad=0.07307999999999999_net_fail ad=0.07307999999999999_dim_fail as=0.07307999999999999_net_fail as=0.07307999999999999_dim_fail pd=2.2439999999999998_net_fail pd=2.2439999999999998_dim_fail ps=2.2439999999999998_net_fail ps=2.2439999999999998_dim_fail nrd=0.6904761904761905_net_fail nrd=0.6904761904761905_dim_fail nrs=0.6904761904761905_net_fail nrs=0.6904761904761905_dim_fail sa=0_net_fail sa=0_dim_fail sb=0_net_fail sb=0_dim_fail sd=0_net_fail sd=0_dim_fail

M17 SOURCE17 GATE17 DRAIN17 SUBSTRATE sky130_fd_pr__nfet_05v0_nvt w=2.1 l=0.15 nf=5 
+ m=1 ad=0.36540000000000006 as=0.36540000000000006 pd=4.26 ps=4.26 nrd=0.13809523809523808 nrs=0.13809523809523808 sa=0 sb=0 sd=0 m=1_net_fail m=1_dim_fail ad=0.36540000000000006_net_fail ad=0.36540000000000006_dim_fail as=0.36540000000000006_net_fail as=0.36540000000000006_dim_fail pd=4.26_net_fail pd=4.26_dim_fail ps=4.26_net_fail ps=4.26_dim_fail nrd=0.13809523809523808_net_fail nrd=0.13809523809523808_dim_fail nrs=0.13809523809523808_net_fail nrs=0.13809523809523808_dim_fail sa=0_net_fail sa=0_dim_fail sb=0_net_fail sb=0_dim_fail sd=0_net_fail sd=0_dim_fail

M18 SOURCE18 GATE18 DRAIN18 SUBSTRATE sky130_fd_pr__nfet_05v0_nvt w=3.7800000000000002 l=0.15 nf=5 
+ m=1 ad=0.6577199999999999 as=0.6577199999999999 pd=6.276 ps=6.276 nrd=0.07671957671957672 nrs=0.07671957671957672 sa=0 sb=0 sd=0 m=1_net_fail m=1_dim_fail ad=0.6577199999999999_net_fail ad=0.6577199999999999_dim_fail as=0.6577199999999999_net_fail as=0.6577199999999999_dim_fail pd=6.276_net_fail pd=6.276_dim_fail ps=6.276_net_fail ps=6.276_dim_fail nrd=0.07671957671957672_net_fail nrd=0.07671957671957672_dim_fail nrs=0.07671957671957672_net_fail nrs=0.07671957671957672_dim_fail sa=0_net_fail sa=0_dim_fail sb=0_net_fail sb=0_dim_fail sd=0_net_fail sd=0_dim_fail

M19 SOURCE19 GATE19 DRAIN19 SUBSTRATE sky130_fd_pr__nfet_05v0_nvt w=5.460000000000001 l=0.15 nf=5 
+ m=1 ad=0.9500400000000001 as=0.9500400000000001 pd=8.292000000000002 ps=8.292000000000002 nrd=0.0531135531135531 nrs=0.0531135531135531 sa=0 sb=0 sd=0 m=1_net_fail m=1_dim_fail ad=0.9500400000000001_net_fail ad=0.9500400000000001_dim_fail as=0.9500400000000001_net_fail as=0.9500400000000001_dim_fail pd=8.292000000000002_net_fail pd=8.292000000000002_dim_fail ps=8.292000000000002_net_fail ps=8.292000000000002_dim_fail nrd=0.0531135531135531_net_fail nrd=0.0531135531135531_dim_fail nrs=0.0531135531135531_net_fail nrs=0.0531135531135531_dim_fail sa=0_net_fail sa=0_dim_fail sb=0_net_fail sb=0_dim_fail sd=0_net_fail sd=0_dim_fail

M20 SOURCE20 GATE20 DRAIN20 SUBSTRATE sky130_fd_pr__nfet_05v0_nvt w=0.42 l=2.15 nf=5 
+ m=1 ad=0.07307999999999999 as=0.07307999999999999 pd=2.2439999999999998 ps=2.2439999999999998 nrd=0.6904761904761905 nrs=0.6904761904761905 sa=0 sb=0 sd=0 m=1_net_fail m=1_dim_fail ad=0.07307999999999999_net_fail ad=0.07307999999999999_dim_fail as=0.07307999999999999_net_fail as=0.07307999999999999_dim_fail pd=2.2439999999999998_net_fail pd=2.2439999999999998_dim_fail ps=2.2439999999999998_net_fail ps=2.2439999999999998_dim_fail nrd=0.6904761904761905_net_fail nrd=0.6904761904761905_dim_fail nrs=0.6904761904761905_net_fail nrs=0.6904761904761905_dim_fail sa=0_net_fail sa=0_dim_fail sb=0_net_fail sb=0_dim_fail sd=0_net_fail sd=0_dim_fail

M21 SOURCE21 GATE21 DRAIN21 SUBSTRATE sky130_fd_pr__nfet_05v0_nvt w=2.1 l=2.15 nf=5 
+ m=1 ad=0.36540000000000006 as=0.36540000000000006 pd=4.26 ps=4.26 nrd=0.13809523809523808 nrs=0.13809523809523808 sa=0 sb=0 sd=0 m=1_net_fail m=1_dim_fail ad=0.36540000000000006_net_fail ad=0.36540000000000006_dim_fail as=0.36540000000000006_net_fail as=0.36540000000000006_dim_fail pd=4.26_net_fail pd=4.26_dim_fail ps=4.26_net_fail ps=4.26_dim_fail nrd=0.13809523809523808_net_fail nrd=0.13809523809523808_dim_fail nrs=0.13809523809523808_net_fail nrs=0.13809523809523808_dim_fail sa=0_net_fail sa=0_dim_fail sb=0_net_fail sb=0_dim_fail sd=0_net_fail sd=0_dim_fail

M22 SOURCE22 GATE22 DRAIN22 SUBSTRATE sky130_fd_pr__nfet_05v0_nvt w=3.7800000000000002 l=2.15 nf=5 
+ m=1 ad=0.6577199999999999 as=0.6577199999999999 pd=6.276 ps=6.276 nrd=0.07671957671957672 nrs=0.07671957671957672 sa=0 sb=0 sd=0 m=1_net_fail m=1_dim_fail ad=0.6577199999999999_net_fail ad=0.6577199999999999_dim_fail as=0.6577199999999999_net_fail as=0.6577199999999999_dim_fail pd=6.276_net_fail pd=6.276_dim_fail ps=6.276_net_fail ps=6.276_dim_fail nrd=0.07671957671957672_net_fail nrd=0.07671957671957672_dim_fail nrs=0.07671957671957672_net_fail nrs=0.07671957671957672_dim_fail sa=0_net_fail sa=0_dim_fail sb=0_net_fail sb=0_dim_fail sd=0_net_fail sd=0_dim_fail

M23 SOURCE23 GATE23 DRAIN23 SUBSTRATE sky130_fd_pr__nfet_05v0_nvt w=5.460000000000001 l=2.15 nf=5 
+ m=1 ad=0.9500400000000001 as=0.9500400000000001 pd=8.292000000000002 ps=8.292000000000002 nrd=0.0531135531135531 nrs=0.0531135531135531 sa=0 sb=0 sd=0 m=1_net_fail m=1_dim_fail ad=0.9500400000000001_net_fail ad=0.9500400000000001_dim_fail as=0.9500400000000001_net_fail as=0.9500400000000001_dim_fail pd=8.292000000000002_net_fail pd=8.292000000000002_dim_fail ps=8.292000000000002_net_fail ps=8.292000000000002_dim_fail nrd=0.0531135531135531_net_fail nrd=0.0531135531135531_dim_fail nrs=0.0531135531135531_net_fail nrs=0.0531135531135531_dim_fail sa=0_net_fail sa=0_dim_fail sb=0_net_fail sb=0_dim_fail sd=0_net_fail sd=0_dim_fail

M24 SOURCE24 GATE24 DRAIN24 SUBSTRATE sky130_fd_pr__nfet_05v0_nvt w=0.42 l=4.15 nf=5 
+ m=1 ad=0.07307999999999999 as=0.07307999999999999 pd=2.2439999999999998 ps=2.2439999999999998 nrd=0.6904761904761905 nrs=0.6904761904761905 sa=0 sb=0 sd=0 m=1_net_fail m=1_dim_fail ad=0.07307999999999999_net_fail ad=0.07307999999999999_dim_fail as=0.07307999999999999_net_fail as=0.07307999999999999_dim_fail pd=2.2439999999999998_net_fail pd=2.2439999999999998_dim_fail ps=2.2439999999999998_net_fail ps=2.2439999999999998_dim_fail nrd=0.6904761904761905_net_fail nrd=0.6904761904761905_dim_fail nrs=0.6904761904761905_net_fail nrs=0.6904761904761905_dim_fail sa=0_net_fail sa=0_dim_fail sb=0_net_fail sb=0_dim_fail sd=0_net_fail sd=0_dim_fail

M25 SOURCE25 GATE25 DRAIN25 SUBSTRATE sky130_fd_pr__nfet_05v0_nvt w=2.1 l=4.15 nf=5 
+ m=1 ad=0.36540000000000006 as=0.36540000000000006 pd=4.26 ps=4.26 nrd=0.13809523809523808 nrs=0.13809523809523808 sa=0 sb=0 sd=0 m=1_net_fail m=1_dim_fail ad=0.36540000000000006_net_fail ad=0.36540000000000006_dim_fail as=0.36540000000000006_net_fail as=0.36540000000000006_dim_fail pd=4.26_net_fail pd=4.26_dim_fail ps=4.26_net_fail ps=4.26_dim_fail nrd=0.13809523809523808_net_fail nrd=0.13809523809523808_dim_fail nrs=0.13809523809523808_net_fail nrs=0.13809523809523808_dim_fail sa=0_net_fail sa=0_dim_fail sb=0_net_fail sb=0_dim_fail sd=0_net_fail sd=0_dim_fail

M26 SOURCE26 GATE26 DRAIN26 SUBSTRATE sky130_fd_pr__nfet_05v0_nvt w=3.7800000000000002 l=4.15 nf=5 
+ m=1 ad=0.6577199999999999 as=0.6577199999999999 pd=6.276 ps=6.276 nrd=0.07671957671957672 nrs=0.07671957671957672 sa=0 sb=0 sd=0 m=1_net_fail m=1_dim_fail ad=0.6577199999999999_net_fail ad=0.6577199999999999_dim_fail as=0.6577199999999999_net_fail as=0.6577199999999999_dim_fail pd=6.276_net_fail pd=6.276_dim_fail ps=6.276_net_fail ps=6.276_dim_fail nrd=0.07671957671957672_net_fail nrd=0.07671957671957672_dim_fail nrs=0.07671957671957672_net_fail nrs=0.07671957671957672_dim_fail sa=0_net_fail sa=0_dim_fail sb=0_net_fail sb=0_dim_fail sd=0_net_fail sd=0_dim_fail

M27 SOURCE27 GATE27 DRAIN27 SUBSTRATE sky130_fd_pr__nfet_05v0_nvt w=5.460000000000001 l=4.15 nf=5 
+ m=1 ad=0.9500400000000001 as=0.9500400000000001 pd=8.292000000000002 ps=8.292000000000002 nrd=0.0531135531135531 nrs=0.0531135531135531 sa=0 sb=0 sd=0 m=1_net_fail m=1_dim_fail ad=0.9500400000000001_net_fail ad=0.9500400000000001_dim_fail as=0.9500400000000001_net_fail as=0.9500400000000001_dim_fail pd=8.292000000000002_net_fail pd=8.292000000000002_dim_fail ps=8.292000000000002_net_fail ps=8.292000000000002_dim_fail nrd=0.0531135531135531_net_fail nrd=0.0531135531135531_dim_fail nrs=0.0531135531135531_net_fail nrs=0.0531135531135531_dim_fail sa=0_net_fail sa=0_dim_fail sb=0_net_fail sb=0_dim_fail sd=0_net_fail sd=0_dim_fail

M28 SOURCE28 GATE28 DRAIN28 SUBSTRATE sky130_fd_pr__nfet_05v0_nvt w=0.42 l=6.15 nf=5 
+ m=1 ad=0.07307999999999999 as=0.07307999999999999 pd=2.2439999999999998 ps=2.2439999999999998 nrd=0.6904761904761905 nrs=0.6904761904761905 sa=0 sb=0 sd=0 m=1_net_fail m=1_dim_fail ad=0.07307999999999999_net_fail ad=0.07307999999999999_dim_fail as=0.07307999999999999_net_fail as=0.07307999999999999_dim_fail pd=2.2439999999999998_net_fail pd=2.2439999999999998_dim_fail ps=2.2439999999999998_net_fail ps=2.2439999999999998_dim_fail nrd=0.6904761904761905_net_fail nrd=0.6904761904761905_dim_fail nrs=0.6904761904761905_net_fail nrs=0.6904761904761905_dim_fail sa=0_net_fail sa=0_dim_fail sb=0_net_fail sb=0_dim_fail sd=0_net_fail sd=0_dim_fail

M29 SOURCE29 GATE29 DRAIN29 SUBSTRATE sky130_fd_pr__nfet_05v0_nvt w=2.1 l=6.15 nf=5 
+ m=1 ad=0.36540000000000006 as=0.36540000000000006 pd=4.26 ps=4.26 nrd=0.13809523809523808 nrs=0.13809523809523808 sa=0 sb=0 sd=0 m=1_net_fail m=1_dim_fail ad=0.36540000000000006_net_fail ad=0.36540000000000006_dim_fail as=0.36540000000000006_net_fail as=0.36540000000000006_dim_fail pd=4.26_net_fail pd=4.26_dim_fail ps=4.26_net_fail ps=4.26_dim_fail nrd=0.13809523809523808_net_fail nrd=0.13809523809523808_dim_fail nrs=0.13809523809523808_net_fail nrs=0.13809523809523808_dim_fail sa=0_net_fail sa=0_dim_fail sb=0_net_fail sb=0_dim_fail sd=0_net_fail sd=0_dim_fail

M30 SOURCE30 GATE30 DRAIN30 SUBSTRATE sky130_fd_pr__nfet_05v0_nvt w=3.7800000000000002 l=6.15 nf=5 
+ m=1 ad=0.6577199999999999 as=0.6577199999999999 pd=6.276 ps=6.276 nrd=0.07671957671957672 nrs=0.07671957671957672 sa=0 sb=0 sd=0 m=1_net_fail m=1_dim_fail ad=0.6577199999999999_net_fail ad=0.6577199999999999_dim_fail as=0.6577199999999999_net_fail as=0.6577199999999999_dim_fail pd=6.276_net_fail pd=6.276_dim_fail ps=6.276_net_fail ps=6.276_dim_fail nrd=0.07671957671957672_net_fail nrd=0.07671957671957672_dim_fail nrs=0.07671957671957672_net_fail nrs=0.07671957671957672_dim_fail sa=0_net_fail sa=0_dim_fail sb=0_net_fail sb=0_dim_fail sd=0_net_fail sd=0_dim_fail

M31 SOURCE31 GATE31 DRAIN31 SUBSTRATE sky130_fd_pr__nfet_05v0_nvt w=5.460000000000001 l=6.15 nf=5 